datafiles/case_ACTIVSg200.m
function mpc = case_ACTIVSg200
%CASE_ACTIVSG200

%% MATPOWER Case Format : Version 2
mpc.version = '2';

%%-----  Power Flow Data  -----%%
%% system MVA base
mpc.baseMVA = 100;

%% bus data
%	bus_i	type	Pd	Qd	Gs	Bs	area	Vm	Va	baseKV	zone	Vmax	Vmin	lam_P	lam_Q	mu_Vmax	mu_Vmin
mpc.bus = [
	1	1	0	0	0	0	1	1.01916363	-7.08600773	115	2	1.1	0.9	6.8700	0.0000	0.0000	0.0000;
	2	1	7.39	2.1	0	0	1	1.01904599	-7.09884079	115	2	1.1	0.9	6.8700	0.0000	0.0000	0.0000;
	3	1	0	0	0	0	1	1.02999962	-10.029999	115	4	1.1	0.9	6.8700	0.0000	0.0000	0.0000;
	4	1	1.7	0.48	0	0	1	1.02997477	-10.0328831	115	4	1.1	0.9	6.8700	0.0000	0.0000	0.0000;
	5	1	0	0	0	0	1	1.03722974	-3.54629276	115	6	1.1	0.9	6.8700	0.0000	0.0000	0.0000;
	6	1	7.95	2.26	0	0	1	1.0371038	-3.55958758	115	6	1.1	0.9	6.8700	0.0000	0.0000	0.0000;
	7	1	0	0	0	0	1	1.01311034	-7.79401769	115	2	1.1	0.9	6.8700	0.0000	0.0000	0.0000;
	8	1	23.74	6.77	0	0	1	1.0127483	-7.83389739	115	2	1.1	0.9	6.8700	0.0000	0.0000	0.0000;
	9	1	0	0	0	0	1	1.01578675	-7.47255946	115	2	1.1	0.9	6.8700	0.0000	0.0000	0.0000;
	10	1	42.68	12.16	0	0	1	1.01506429	-7.56269003	115	2	1.1	0.9	6.8700	0.0000	0.0000	0.0000;
	11	1	0	0	0	0	1	1.0462662	-7.60410243	115	4	1.1	0.9	6.8700	0.0000	0.0000	0.0000;
	12	1	0.3	0.09	0	0	1	1.04626163	-7.60463204	115	4	1.1	0.9	6.8700	0.0000	0.0000	0.0000;
	13	1	2.52	0.72	0	0	1	1.04622647	-7.60862558	115	4	1.1	0.9	6.8700	0.0000	0.0000	0.0000;
	14	1	0	0	0	0	1	1.04455953	-6.24559702	230	4	1.1	0.9	6.8700	0.0000	0.0000	0.0000;
	15	1	0	0	0	30	1	1.04901382	-7.10547161	115	4	1.1	0.9	6.8700	0.0000	0.0000	0.0000;
	16	1	44.76	12.76	0	0	1	1.04838744	-7.17641622	115	4	1.1	0.9	6.8700	0.0000	0.0000	0.0000;
	17	1	0	0	0	0	1	1.02479653	-8.30607803	115	4	1.1	0.9	6.8700	0.0000	0.0000	0.0000;
	18	1	0.71	0.2	0	0	1	1.02478539	-8.3075439	115	4	1.1	0.9	6.8700	0.0000	0.0000	0.0000;
	19	1	0.77	0.22	0	0	1	1.02478606	-8.30730979	115	4	1.1	0.9	6.8700	0.0000	0.0000	0.0000;
	20	1	1.13	0.32	0	0	1	1.02477924	-8.30802775	115	4	1.1	0.9	6.8700	0.0000	0.0000	0.0000;
	21	1	4.61	1.31	0	0	1	1.02471826	-8.31554498	115	4	1.1	0.9	6.8700	0.0000	0.0000	0.0000;
	22	1	0	0	0	0	1	1.044468	-8.02116587	115	4	1.1	0.9	6.8700	0.0000	0.0000	0.0000;
	23	1	1.41	0.4	0	0	1	1.04444735	-8.02342254	115	4	1.1	0.9	6.8700	0.0000	0.0000	0.0000;
	24	1	2.4	0.68	0	0	1	1.04443224	-8.02478659	115	4	1.1	0.9	6.8700	0.0000	0.0000	0.0000;
	25	1	0	0	0	0	1	1.04239515	-4.00297757	115	6	1.1	0.9	6.8700	0.0000	0.0000	0.0000;
	26	1	1.35	0.39	0	0	1	1.04237576	-4.00503827	115	6	1.1	0.9	6.8700	0.0000	0.0000	0.0000;
	27	1	0	0	0	0	1	1.04550657	-7.97430501	115	4	1.1	0.9	6.8700	0.0000	0.0000	0.0000;
	28	1	2.33	0.67	0	0	1	1.04546808	-7.9789403	115	4	1.1	0.9	6.8700	0.0000	0.0000	0.0000;
	29	1	0	0	0	0	1	1.0181786	-7.05497558	115	2	1.1	0.9	6.8700	0.0000	0.0000	0.0000;
	30	1	59.09	16.84	0	0	1	1.01725573	-7.15085535	115	2	1.1	0.9	6.8700	0.0000	0.0000	0.0000;
	31	1	0	0	0	0	1	1.02158677	-5.83287135	115	7	1.1	0.9	6.8700	0.0000	0.0000	0.0000;
	32	1	0.51	0.15	0	0	1	1.02157773	-5.83390392	115	7	1.1	0.9	6.8700	0.0000	0.0000	0.0000;
	33	1	6.44	1.84	0	0	1	1.02148791	-5.84520508	115	7	1.1	0.9	6.8700	0.0000	0.0000	0.0000;
	34	1	0	0	0	0	1	1.03264132	-9.32700297	115	4	1.1	0.9	6.8700	0.0000	0.0000	0.0000;
	35	1	20.76	5.92	0	0	1	1.03231475	-9.36616807	115	4	1.1	0.9	6.8700	0.0000	0.0000	0.0000;
	36	1	0	0	0	0	1	1.02807076	-6.1793044	115	7	1.1	0.9	6.8700	0.0000	0.0000	0.0000;
	37	1	3.57	1.02	0	0	1	1.02801856	-6.18544011	115	7	1.1	0.9	6.8700	0.0000	0.0000	0.0000;
	38	1	29.81	8.5	0	0	1	1.02758552	-6.2329799	115	7	1.1	0.9	6.8700	0.0000	0.0000	0.0000;
	39	1	7.41	2.11	0	0	1	1.02456486	-10.4939742	115	4	1.1	0.9	6.8700	0.0000	0.0000	0.0000;
	40	1	2.04	0.58	0	0	1	1.02453724	-10.4972694	115	4	1.1	0.9	6.8700	0.0000	0.0000	0.0000;
	41	1	38.34	10.93	0	0	1	1.04600933	-7.96016354	115	5	1.1	0.9	6.8700	0.0000	0.0000	0.0000;
	42	1	10.62	3.03	0	0	1	1.03013747	-11.0708699	115	4	1.1	0.9	6.8700	0.0000	0.0000	0.0000;
	43	1	2.09	0.59	0	0	1	1.01726389	-6.40157417	115	2	1.1	0.9	6.8700	0.0000	0.0000	0.0000;
	44	1	4.15	1.18	0	0	1	1.02801163	-10.3997586	115	4	1.1	0.9	6.8700	0.0000	0.0000	0.0000;
	45	1	0	0	0	0	1	1.03846674	-2.06935753	230	7	1.1	0.9	6.8700	0.0000	0.0000	0.0000;
	46	1	6.34	1.81	0	0	1	1.03782767	-2.8900814	115	7	1.1	0.9	6.8700	0.0000	0.0000	0.0000;
	47	1	1.54	0.44	0	0	1	1.03917013	-8.19555351	115	4	1.1	0.9	6.8700	0.0000	0.0000	0.0000;
	48	1	1.82	0.52	0	0	1	1.03511818	-4.17510549	115	6	1.1	0.9	6.8700	0.0000	0.0000	0.0000;
	49	2	0	0	0	0	1	1.04	-3.80285673	13.8	6	1.1	0.9	6.8700	0.0000	0.0000	0.0000;
	50	2	0	0	0	0	1	1.04	-3.89626761	13.8	6	1.1	0.9	6.8700	0.0000	0.0000	0.0000;
	51	2	0	0	0	0	1	1.04	-3.74277586	13.8	6	1.1	0.9	6.8700	0.0000	0.0000	0.0000;
	52	2	0	0	0	0	1	1.04	-3.91476727	13.8	6	1.1	0.9	6.8700	0.0000	0.0000	0.0000;
	53	2	0	0	0	0	1	1.04	-3.34945677	13.8	6	1.1	0.9	6.8700	0.0000	0.0000	0.0000;
	54	1	2.66	0.76	0	0	1	1.03741255	-8.49384375	115	4	1.1	0.9	6.8700	0.0000	0.0000	0.0000;
	55	1	0	0	0	0	1	1.03712195	-2.29963842	230	7	1.1	0.9	6.8700	0.0000	0.0000	0.0000;
	56	1	1.31	0.37	0	0	1	1.03648194	-2.73749556	115	7	1.1	0.9	6.8700	0.0000	0.0000	0.0000;
	57	1	2.82	0.8	0	0	1	1.0280942	-10.4500791	115	4	1.1	0.9	6.8700	0.0000	0.0000	0.0000;
	58	1	4.23	1.21	0	0	1	1.03494055	-6.03097041	115	7	1.1	0.9	6.8700	0.0000	0.0000	0.0000;
	59	1	4.73	1.35	0	0	1	1.01878795	-7.69337976	115	2	1.1	0.9	6.8700	0.0000	0.0000	0.0000;
	60	1	3.8	1.08	0	0	1	1.02911842	-6.55568593	115	2	1.1	0.9	6.8700	0.0000	0.0000	0.0000;
	61	1	20.55	5.86	0	0	1	1.03517925	-3.10340821	115	7	1.1	0.9	6.8700	0.0000	0.0000	0.0000;
	62	1	21.41	6.1	0	0	1	1.02669852	-11.3189642	115	4	1.1	0.9	6.8700	0.0000	0.0000	0.0000;
	63	1	7.98	2.27	0	0	1	1.04364639	-8.23332665	115	4	1.1	0.9	6.8700	0.0000	0.0000	0.0000;
	64	1	0	0	0	0	1	1.04147726	-2.532528	115	6	1.1	0.9	6.8700	0.0000	0.0000	0.0000;
	65	2	0	0	0	0	1	1.04	2.11948295	13.8	6	1.1	0.9	6.8700	0.0000	0.0000	0.0000;
	66	1	0	0	0	0	1	1.04097448	-7.84668305	115	4	1.1	0.9	6.8700	0.0000	0.0000	0.0000;
	67	2	0	0	0	0	1	1.04	-7.72863441	13.8	4	1.1	0.9	6.8700	0.0000	0.0000	0.0000;
	68	2	0	0	0	0	1	1.04	-6.66946498	13.8	4	1.1	0.9	6.8700	0.0000	0.0000	0.0000;
	69	2	0	0	0	0	1	1.04	-7.42207383	13.8	4	1.1	0.9	6.8700	0.0000	0.0000	0.0000;
	70	2	0	0	0	0	1	1.04	-6.95942093	13.8	4	1.1	0.9	6.8700	0.0000	0.0000	0.0000;
	71	2	0	0	0	0	1	1.04	-7.48208596	13.8	4	1.1	0.9	6.8700	0.0000	0.0000	0.0000;
	72	2	0	0	0	0	1	1.04	-7.51260438	13.8	4	1.1	0.9	6.8700	0.0000	0.0000	0.0000;
	73	2	0	0	0	0	1	1.04	-7.19349694	13.8	4	1.1	0.9	6.8700	0.0000	0.0000	0.0000;
	74	1	18.76	5.35	0	0	1	1.02945577	-5.1297588	115	6	1.1	0.9	6.8700	0.0000	0.0000	0.0000;
	75	1	3.6	1.03	0	0	1	1.02898408	-6.11729868	115	2	1.1	0.9	6.8700	0.0000	0.0000	0.0000;
	76	2	0	0	0	0	1	1.04	-5.64234113	13.8	2	1.1	0.9	6.8700	0.0000	0.0000	0.0000;
	77	2	0	0	0	0	1	1.04	-5.29374466	13.8	2	1.1	0.9	6.8700	0.0000	0.0000	0.0000;
	78	2	0	0	0	0	1	1.02898408	-6.11729868	13.8	2	1.1	0.9	6.8700	0.0000	0.0000	0.0000;
	79	2	0	0	0	0	1	1.02898408	-6.11729868	13.8	2	1.1	0.9	6.8700	0.0000	0.0000	0.0000;
	80	1	1.48	0.42	0	0	1	1.04740286	-7.25889364	115	5	1.1	0.9	6.8700	0.0000	0.0000	0.0000;
	81	1	0	0	0	0	1	1.03813357	-3.89662343	230	6	1.1	0.9	6.8700	0.0000	0.0000	0.0000;
	82	1	7.6	2.17	0	0	1	1.03529162	-4.72482808	115	6	1.1	0.9	6.8700	0.0000	0.0000	0.0000;
	83	1	3.14	0.89	0	0	1	1.03059749	-5.14808737	115	7	1.1	0.9	6.8700	0.0000	0.0000	0.0000;
	84	1	3.75	1.07	0	0	1	1.01930982	-5.83768058	115	2	1.1	0.9	6.8700	0.0000	0.0000	0.0000;
	85	1	4.83	1.38	0	0	1	1.02409014	-9.8926547	115	4	1.1	0.9	6.8700	0.0000	0.0000	0.0000;
	86	1	8.25	2.35	0	0	1	1.01430188	-7.63420174	115	2	1.1	0.9	6.8700	0.0000	0.0000	0.0000;
	87	1	0	0	0	0	1	1.03822244	-9.28170835	230	3	1.1	0.9	6.8700	0.0000	0.0000	0.0000;
	88	1	49.34	14.06	0	0	1	1.03676009	-10.4760367	115	3	1.1	0.9	6.8700	0.0000	0.0000	0.0000;
	89	1	62.85	17.91	0	0	1	1.0367668	-6.002597	115	7	1.1	0.9	6.8700	0.0000	0.0000	0.0000;
	90	2	0	0	0	0	1	1.04	-4.84367603	13.8	7	1.1	0.9	6.8700	0.0000	0.0000	0.0000;
	91	2	0	0	0	0	1	1.04	-5.60916995	13.8	7	1.1	0.9	6.8700	0.0000	0.0000	0.0000;
	92	2	0	0	0	0	1	1.0367668	-6.002597	13.8	7	1.1	0.9	6.8700	0.0000	0.0000	0.0000;
	93	1	3.06	0.87	0	0	1	1.04636873	-7.70386963	115	4	1.1	0.9	6.8700	0.0000	0.0000	0.0000;
	94	2	0	0	0	0	1	1.04	-6.89184181	13.8	4	1.1	0.9	6.8700	0.0000	0.0000	0.0000;
	95	1	3	0.85	0	30	1	1.04525585	-6.14457378	115	7	1.1	0.9	6.8700	0.0000	0.0000	0.0000;
	96	1	2.96	0.84	0	0	1	1.03993642	-4.62294417	115	7	1.1	0.9	6.8700	0.0000	0.0000	0.0000;
	97	1	7.33	2.09	0	0	1	1.02663366	-8.07181676	115	2	1.1	0.9	6.8700	0.0000	0.0000	0.0000;
	98	1	0	0	0	0	1	1.02598172	-5.69420234	230	2	1.1	0.9	6.8700	0.0000	0.0000	0.0000;
	99	1	12.17	3.47	0	0	1	1.02176795	-6.53355331	115	2	1.1	0.9	6.8700	0.0000	0.0000	0.0000;
	100	1	37.39	10.66	0	80	1	1.05536479	-7.84540409	115	5	1.1	0.9	6.8700	0.0000	0.0000	0.0000;
	101	1	0.52	0.15	0	0	1	1.01535566	-7.48770712	115	2	1.1	0.9	6.8700	0.0000	0.0000	0.0000;
	102	1	0	0	0	0	1	1.03763419	-1.85625975	230	7	1.1	0.9	6.8700	0.0000	0.0000	0.0000;
	103	1	0	0	0	0	1	1.03622816	-2.82138516	115	7	1.1	0.9	6.8700	0.0000	0.0000	0.0000;
	104	2	0	0	0	0	1	1.04	1.29137612	13.8	7	1.1	0.9	6.8700	0.0000	0.0000	0.0000;
	105	2	0	0	0	0	1	1.04	3.0290423	13.8	7	1.1	0.9	6.8700	0.0000	0.0000	0.0000;
	106	1	2.06	0.59	0	0	1	1.03334167	-3.58839406	115	7	1.1	0.9	6.8700	0.0000	0.0000	0.0000;
	107	1	52.56	14.98	0	0	1	1.01650255	-5.89859212	115	7	1.1	0.9	6.8700	0.0000	0.0000	0.0000;
	108	1	9.42	2.68	0	0	1	1.02632117	-6.59188596	115	2	1.1	0.9	6.8700	0.0000	0.0000	0.0000;
	109	1	5.16	1.47	0	0	1	1.02669322	-7.11997278	115	4	1.1	0.9	6.8700	0.0000	0.0000	0.0000;
	110	1	10.86	3.09	0	0	1	1.01541329	-7.49552378	115	2	1.1	0.9	6.8700	0.0000	0.0000	0.0000;
	111	1	8.82	2.51	0	0	1	1.04200621	-8.06908264	115	5	1.1	0.9	6.8700	0.0000	0.0000	0.0000;
	112	1	0	0	0	0	1	1.03400211	-2.38747885	230	7	1.1	0.9	6.8700	0.0000	0.0000	0.0000;
	113	1	0	0	0	0	1	1.02156066	-5.24727629	115	7	1.1	0.9	6.8700	0.0000	0.0000	0.0000;
	114	2	0	0	0	0	1	1.04	-2.10359208	13.8	7	1.1	0.9	6.8700	0.0000	0.0000	0.0000;
	115	2	0	0	0	0	1	1.04	2.07343009	13.8	7	1.1	0.9	6.8700	0.0000	0.0000	0.0000;
	116	1	0	0	0	0	1	1.02607387	-5.40847804	230	2	1.1	0.9	6.8700	0.0000	0.0000	0.0000;
	117	1	34.08	9.71	0	0	1	1.01942728	-6.76221031	115	2	1.1	0.9	6.8700	0.0000	0.0000	0.0000;
	118	1	3.94	1.12	0	0	1	1.02209938	-6.76213015	115	2	1.1	0.9	6.8700	0.0000	0.0000	0.0000;
	119	1	17.55	5	0	0	1	1.01630221	-7.89062662	115	2	1.1	0.9	6.8700	0.0000	0.0000	0.0000;
	120	1	1.8	0.51	0	0	1	1.02444608	-9.26162956	115	4	1.1	0.9	6.8700	0.0000	0.0000	0.0000;
	121	1	0	0	0	0	1	1.0413523	-2.55074245	230	7	1.1	0.9	6.8700	0.0000	0.0000	0.0000;
	122	1	15.44	4.4	0	0	1	1.03919394	-3.47713246	115	7	1.1	0.9	6.8700	0.0000	0.0000	0.0000;
	123	1	0	0	0	0	1	1.03177899	-4.80060848	230	2	1.1	0.9	6.8700	0.0000	0.0000	0.0000;
	124	1	0	0	0	0	1	1.02420958	-6.3126283	115	2	1.1	0.9	6.8700	0.0000	0.0000	0.0000;
	125	2	0	0	0	0	1	1.04	-2.63887226	13.8	2	1.1	0.9	6.8700	0.0000	0.0000	0.0000;
	126	2	0	0	0	0	1	1.04	-3.43438907	13.8	2	1.1	0.9	6.8700	0.0000	0.0000	0.0000;
	127	2	0	0	0	0	1	1.04	-4.15418132	13.8	2	1.1	0.9	6.8700	0.0000	0.0000	0.0000;
	128	1	0	0	0	0	1	1.03374178	-2.64302401	230	7	1.1	0.9	6.8700	0.0000	0.0000	0.0000;
	129	1	77.24	22.01	0	0	1	1.01998695	-5.28172114	115	7	1.1	0.9	6.8700	0.0000	0.0000	0.0000;
	130	1	4.4	1.25	0	0	1	1.0308905	-4.21623941	115	7	1.1	0.9	6.8700	0.0000	0.0000	0.0000;
	131	1	30.25	8.62	0	0	1	1.01596493	-7.48443846	115	2	1.1	0.9	6.8700	0.0000	0.0000	0.0000;
	132	1	26.96	7.68	0	0	1	1.01424679	-7.14487866	115	2	1.1	0.9	6.8700	0.0000	0.0000	0.0000;
	133	1	0	0	0	0	1	1.03343907	-4.37706257	230	2	1.1	0.9	6.8700	0.0000	0.0000	0.0000;
	134	1	0	0	0	0	1	1.03157574	-5.23213081	115	2	1.1	0.9	6.8700	0.0000	0.0000	0.0000;
	135	2	0	0	0	0	1	1.04	-1.98879268	13.8	2	1.1	0.9	6.8700	0.0000	0.0000	0.0000;
	136	2	0	0	0	0	1	1.04	-2.42070618	13.8	2	1.1	0.9	6.8700	0.0000	0.0000	0.0000;
	137	1	1.16	0.33	0	0	1	1.0312613	-9.71983903	115	4	1.1	0.9	6.8700	0.0000	0.0000	0.0000;
	138	1	2.09	0.6	0	0	1	1.03077554	-5.69939054	115	6	1.1	0.9	6.8700	0.0000	0.0000	0.0000;
	139	1	6.84	1.95	0	0	1	1.02141169	-7.36164996	115	2	1.1	0.9	6.8700	0.0000	0.0000	0.0000;
	140	1	8.21	2.34	0	0	1	1.02312063	-6.39176949	115	2	1.1	0.9	6.8700	0.0000	0.0000	0.0000;
	141	1	1.42	0.41	0	0	1	1.0153711	-7.52269319	115	2	1.1	0.9	6.8700	0.0000	0.0000	0.0000;
	142	1	37.26	10.62	0	0	1	1.014083	-7.61861877	115	2	1.1	0.9	6.8700	0.0000	0.0000	0.0000;
	143	1	26.78	7.63	0	0	1	1.03716378	-6.55028737	115	5	1.1	0.9	6.8700	0.0000	0.0000	0.0000;
	144	1	9.05	2.58	0	0	1	1.02367009	-5.92904224	115	2	1.1	0.9	6.8700	0.0000	0.0000	0.0000;
	145	1	17.54	5	0	0	1	1.03200376	-11.1646091	115	3	1.1	0.9	6.8700	0.0000	0.0000	0.0000;
	146	1	0	0	0	0	1	1.03312778	-4.01122903	115	7	1.1	0.9	6.8700	0.0000	0.0000	0.0000;
	147	2	0	0	0	0	1	1.04	0.999909247	13.8	7	1.1	0.9	6.8700	0.0000	0.0000	0.0000;
	148	1	32.02	9.13	0	0	1	1.01024146	-8.19005419	115	2	1.1	0.9	6.8700	0.0000	0.0000	0.0000;
	149	1	0	0	0	0	1	1.03954025	-8.87985303	230	3	1.1	0.9	6.8700	0.0000	0.0000	0.0000;
	150	1	0	0	0	0	1	1.0396499	-10.0004822	115	3	1.1	0.9	6.8700	0.0000	0.0000	0.0000;
	151	2	0	0	0	0	1	1.04	-8.34311143	13.8	3	1.1	0.9	6.8700	0.0000	0.0000	0.0000;
	152	2	0	0	0	0	1	1.04	-7.14013903	13.8	3	1.1	0.9	6.8700	0.0000	0.0000	0.0000;
	153	2	0	0	0	0	1	1.04	-6.61254631	13.8	3	1.1	0.9	6.8700	0.0000	0.0000	0.0000;
	154	2	0	0	0	0	1	1.04	-7.61592875	13.8	3	1.1	0.9	6.8700	0.0000	0.0000	0.0000;
	155	2	0	0	0	0	1	1.04	-7.65405091	13.8	3	1.1	0.9	6.8700	0.0000	0.0000	0.0000;
	156	1	0	0	0	0	1	1.0321123	-4.725596	230	2	1.1	0.9	6.8700	0.0000	0.0000	0.0000;
	157	1	14.76	4.21	0	0	1	1.03052753	-5.44022924	115	2	1.1	0.9	6.8700	0.0000	0.0000	0.0000;
	158	1	8.97	2.56	0	0	1	1.04331107	-7.89999891	115	4	1.1	0.9	6.8700	0.0000	0.0000	0.0000;
	159	1	1.39	0.4	0	0	1	1.02656169	-10.7433532	115	4	1.1	0.9	6.8700	0.0000	0.0000	0.0000;
	160	1	0	0	0	0	1	1.03113284	-11.2403971	115	4	1.1	0.9	6.8700	0.0000	0.0000	0.0000;
	161	2	0	0	0	0	1	1.03113284	-11.2403971	13.8	4	1.1	0.9	6.8700	0.0000	0.0000	0.0000;
	162	1	1.45	0.41	0	0	1	1.02260802	-6.22190461	115	2	1.1	0.9	6.8700	0.0000	0.0000	0.0000;
	163	1	45.8	13.05	0	0	1	1.04285232	-7.92593669	115	5	1.1	0.9	6.8700	0.0000	0.0000	0.0000;
	164	2	0	0	0	0	1	1.04285232	-7.92593669	13.8	5	1.1	0.9	6.8700	0.0000	0.0000	0.0000;
	165	2	0	0	0	0	1	1.04285232	-7.92593669	13.8	5	1.1	0.9	6.8700	0.0000	0.0000	0.0000;
	166	2	0	0	0	0	1	1.04285232	-7.92593669	13.8	5	1.1	0.9	6.8700	0.0000	0.0000	0.0000;
	167	2	0	0	0	0	1	1.04	-7.62405503	13.8	5	1.1	0.9	6.8700	0.0000	0.0000	0.0000;
	168	2	0	0	0	0	1	1.04285232	-7.92593669	13.8	5	1.1	0.9	6.8700	0.0000	0.0000	0.0000;
	169	2	0	0	0	0	1	1.04285232	-7.92593669	13.8	5	1.1	0.9	6.8700	0.0000	0.0000	0.0000;
	170	2	0	0	0	0	1	1.04	-7.35963008	13.8	5	1.1	0.9	6.8700	0.0000	0.0000	0.0000;
	171	1	7.94	2.26	0	0	1	1.02934235	-5.5445882	115	6	1.1	0.9	6.8700	0.0000	0.0000	0.0000;
	172	1	5.38	1.53	0	0	1	1.04444615	-6.73770286	115	5	1.1	0.9	6.8700	0.0000	0.0000	0.0000;
	173	1	8.71	2.48	0	0	1	1.04363558	-7.82515111	115	5	1.1	0.9	6.8700	0.0000	0.0000	0.0000;
	174	1	2.77	0.79	0	0	1	1.04837375	-6.97596698	115	5	1.1	0.9	6.8700	0.0000	0.0000	0.0000;
	175	1	7.31	2.08	0	0	1	1.04224472	-8.05133863	115	5	1.1	0.9	6.8700	0.0000	0.0000	0.0000;
	176	1	19.01	5.42	0	0	1	1.03404291	-10.8495202	115	3	1.1	0.9	6.8700	0.0000	0.0000	0.0000;
	177	1	11.29	3.22	0	0	1	1.02792935	-5.4462954	115	7	1.1	0.9	6.8700	0.0000	0.0000	0.0000;
	178	1	0	0	0	0	1	1.04139148	-4.88916334	230	5	1.1	0.9	6.8700	0.0000	0.0000	0.0000;
	179	1	23.61	6.73	0	0	1	1.04601916	-6.90802125	115	5	1.1	0.9	6.8700	0.0000	0.0000	0.0000;
	180	1	7.74	2.21	0	0	1	1.04496974	-7.12463485	115	5	1.1	0.9	6.8700	0.0000	0.0000	0.0000;
	181	1	47.98	13.67	0	0	1	1.03337842	-11.1959779	115	4	1.1	0.9	6.8700	0.0000	0.0000	0.0000;
	182	2	0	0	0	0	1	1.04	-10.3752178	13.8	4	1.1	0.9	6.8700	0.0000	0.0000	0.0000;
	183	2	0	0	0	0	1	1.04	-10.7240461	13.8	4	1.1	0.9	6.8700	0.0000	0.0000	0.0000;
	184	1	10.69	3.05	0	0	1	1.04903435	-8.28969149	115	5	1.1	0.9	6.8700	0.0000	0.0000	0.0000;
	185	1	10.79	3.07	0	0	1	1.03411746	-10.8716615	115	3	1.1	0.9	6.8700	0.0000	0.0000	0.0000;
	186	1	2.1	0.6	0	0	1	1.02947537	-5.9160269	115	2	1.1	0.9	6.8700	0.0000	0.0000	0.0000;
	187	1	0	0	0	0	1	1.04110027	-1.59368664	230	7	1.1	0.9	6.8700	0.0000	0.0000	0.0000;
	188	1	0	0	0	0	1	1.04218177	-4.27470444	115	7	1.1	0.9	6.8700	0.0000	0.0000	0.0000;
	189	3	0	0	0	0	1	1.04	0	13.8	7	1.1	0.9	6.8700	0.0000	0.0000	0.0000;
	190	1	16.79	4.78	0	0	1	1.02749003	-5.60785145	115	6	1.1	0.9	6.8700	0.0000	0.0000	0.0000;
	191	1	7.23	2.06	0	0	1	1.04574813	-7.76160944	115	5	1.1	0.9	6.8700	0.0000	0.0000	0.0000;
	192	1	52.74	15.03	0	0	1	1.01670013	-5.99347368	115	7	1.1	0.9	6.8700	0.0000	0.0000	0.0000;
	193	1	21.99	6.27	0	0	1	1.01648676	-7.38040553	115	2	1.1	0.9	6.8700	0.0000	0.0000	0.0000;
	194	1	37.57	10.71	0	50	1	1.0400694	-10.7040819	115	3	1.1	0.9	6.8700	0.0000	0.0000	0.0000;
	195	1	0	0	0	0	1	1.03324176	-5.12755041	115	6	1.1	0.9	6.8700	0.0000	0.0000	0.0000;
	196	2	0	0	0	0	1	1.03324176	-5.12755041	13.8	6	1.1	0.9	6.8700	0.0000	0.0000	0.0000;
	197	2	0	0	0	0	1	1.03324176	-5.12755041	13.8	6	1.1	0.9	6.8700	0.0000	0.0000	0.0000;
	198	1	5.37	1.53	0	0	1	1.02323693	-6.85057774	115	2	1.1	0.9	6.8700	0.0000	0.0000	0.0000;
	199	1	4.26	1.21	0	0	1	1.04369788	-5.72118205	115	6	1.1	0.9	6.8700	0.0000	0.0000	0.0000;
	200	1	9.34	2.66	0	0	1	1.02591858	-9.3684472	115	4	1.1	0.9	6.8700	0.0000	0.0000	0.0000;
];

%% generator data
%	bus	Pg	Qg	Qmax	Qmin	Vg	mBase	status	Pmax	Pmin	Pc1	Pc2	Qc1min	Qc1max	Qc2min	Qc2max	ramp_agc	ramp_10	ramp_30	ramp_q	apf	mu_Pmax	mu_Pmin	mu_Qmax	mu_Qmin
mpc.gen = [
	49	1.36	0.88917296	2.11	-0.55	1.04	101.36	1	4.53	1.36	0	0	0	0	0	0	0	0	0	0	0	0.0000	0.0000	0.0000	0.0000;
	50	1.36	1.18625788	2.11	-0.55	1.04	101.36	1	4.53	1.36	0	0	0	0	0	0	0	0	0	0	0	0.0000	0.0000	0.0000	0.0000;
	51	1.36	0.773368323	2.11	-0.55	1.04	101.36	1	4.53	1.36	0	0	0	0	0	0	0	0	0	0	0	0.0000	0.0000	0.0000	0.0000;
	52	1.36	1.26187807	2.11	-0.55	1.04	101.36	1	4.53	1.36	0	0	0	0	0	0	0	0	0	0	0	0.0000	0.0000	0.0000	0.0000;
	53	2.72	0.799923778	4.23	-1.11	1.04	102.72	1	9.07	2.72	0	0	0	0	0	0	0	0	0	0	0	0.0000	0.0000	0.0000	0.0000;
	65	86.5	0.910373188	32.04	-21.66	1.04	186.5	1	86.5	86.5	0	0	0	0	0	0	0	0	0	0	0	0.0000	0.0000	0.0000	0.0000;
	67	1.41	-0.902413669	2.19	-0.57	1.04	101.41	1	4.7	1.41	0	0	0	0	0	0	0	0	0	0	0	0.0000	0.0000	0.0000	0.0000;
	68	8.38	-0.51409407	13.01	-3.41	1.04	108.38	1	27.92	8.38	0	0	0	0	0	0	0	0	0	0	0	0.0000	0.0000	0.0000	0.0000;
	69	8.38	-1.42466234	13.01	-3.41	1.04	108.38	1	27.92	8.38	0	0	0	0	0	0	0	0	0	0	0	0.0000	0.0000	0.0000	0.0000;
	70	8.38	-0.732535042	13.01	-3.41	1.04	108.38	1	27.92	8.38	0	0	0	0	0	0	0	0	0	0	0	0.0000	0.0000	0.0000	0.0000;
	71	8.38	-1.5785155	13.01	-3.41	1.04	108.38	1	27.92	8.38	0	0	0	0	0	0	0	0	0	0	0	0.0000	0.0000	0.0000	0.0000;
	72	8.38	-1.73018479	13.01	-3.41	1.04	108.38	1	27.92	8.38	0	0	0	0	0	0	0	0	0	0	0	0.0000	0.0000	0.0000	0.0000;
	73	8.38	-1.03842216	13.01	-3.41	1.04	108.38	1	27.92	8.38	0	0	0	0	0	0	0	0	0	0	0	0.0000	0.0000	0.0000	0.0000;
	76	1.2	1.40652409	2.04	-0.44	1.04	101.2	1	4	1.2	0	0	0	0	0	0	0	0	0	0	0	0.0000	0.0000	0.0000	0.0000;
	77	0.72	0.501352445	1.22	-0.27	1.04	100.72	1	2.4	0.72	0	0	0	0	0	0	0	0	0	0	0	0.0000	0.0000	0.0000	0.0000;
	90	0.96	0.131852136	1.63	-0.36	1.04	100.96	1	3.2	0.96	0	0	0	0	0	0	0	0	0	0	0	0.0000	0.0000	0.0000	0.0000;
	91	1.5	0.599640188	2.55	-0.55	1.04	101.5	1	5	1.5	0	0	0	0	0	0	0	0	0	0	0	0.0000	0.0000	0.0000	0.0000;
	94	5.4	-2.52703479	8.39	-2.2	1.04	105.4	1	18	5.4	0	0	0	0	0	0	0	0	0	0	0	0.0000	0.0000	0.0000	0.0000;
	104	67.6	3.0414854	21.09	-14.26	1.04	167.6	1	67.6	67.6	0	0	0	0	0	0	0	0	0	0	0	0.0000	0.0000	0.0000	0.0000;
	105	154.8	8.21153017	42.17	-28.51	1.04	254.8	1	154.8	154.8	0	0	0	0	0	0	0	0	0	0	0	0.0000	0.0000	0.0000	0.0000;
	114	1.4	1.24673917	0.36	-0.24	1.04	101.4	1	1.4	1.4	0	0	0	0	0	0	0	0	0	0	0	0.0000	0.0000	0.0000	0.0000;
	115	133.5	12.4048975	31.95	-21.6	1.04	233.5	1	133.5	133.5	0	0	0	0	0	0	0	0	0	0	0	0.0000	0.0000	0.0000	0.0000;
	125	39.02	7.23534065	60.6	-15.87	1.04	139.02	1	130.05	39.02	0	0	0	0	0	0	0	0	0	0	0	0.0000	0.0000	0.0000	0.0000;
	126	39.02	12.5333573	60.6	-15.87	1.04	139.02	1	130.05	39.02	0	0	0	0	0	0	0	0	0	0	0	0.0000	0.0000	0.0000	0.0000;
	127	39.02	25.9630459	60.6	-15.87	1.04	139.02	1	130.05	39.02	0	0	0	0	0	0	0	0	0	0	0	0.0000	0.0000	0.0000	0.0000;
	135	133.92	21.4283828	208.02	-54.46	1.04	233.92	1	446.4	133.92	0	0	0	0	0	0	0	0	0	0	0	0.0000	0.0000	0.0000	0.0000;
	136	133.92	25.016284	208.02	-54.46	1.04	233.92	1	446.4	133.92	0	0	0	0	0	0	0	0	0	0	0	0.0000	0.0000	0.0000	0.0000;
	147	92.4	8.78494434	21.41	-14.47	1.04	192.4	1	92.4	92.4	0	0	0	0	0	0	0	0	0	0	0	0.0000	0.0000	0.0000	0.0000;
	151	1.62	0.0253109636	2.52	-0.66	1.04	101.62	1	5.4	1.62	0	0	0	0	0	0	0	0	0	0	0	0.0000	0.0000	0.0000	0.0000;
	152	23.17	0.281990412	35.99	-9.42	1.04	123.17	1	77.22	23.17	0	0	0	0	0	0	0	0	0	0	0	0.0000	0.0000	0.0000	0.0000;
	153	23.17	0.0284308544	35.99	-9.42	1.04	123.17	1	77.22	23.17	0	0	0	0	0	0	0	0	0	0	0	0.0000	0.0000	0.0000	0.0000;
	154	23.17	0.159558599	35.99	-9.42	1.04	123.17	1	77.22	23.17	0	0	0	0	0	0	0	0	0	0	0	0.0000	0.0000	0.0000	0.0000;
	155	23.17	0.148867583	35.99	-9.42	1.04	123.17	1	77.22	23.17	0	0	0	0	0	0	0	0	0	0	0	0.0000	0.0000	0.0000	0.0000;
	167	2.82	-1.65231728	4.78	-1.04	1.04	102.82	1	9.4	2.82	0	0	0	0	0	0	0	0	0	0	0	0.0000	0.0000	0.0000	0.0000;
	170	2.82	-0.900240383	4.78	-1.04	1.04	102.82	1	9.4	2.82	0	0	0	0	0	0	0	0	0	0	0	0.0000	0.0000	0.0000	0.0000;
	182	5.25	2.15611239	8.16	-2.14	1.04	105.25	1	17.5	5.25	0	0	0	0	0	0	0	0	0	0	0	0.0000	0.0000	0.0000	0.0000;
	183	7.98	5.73605209	12.4	-3.25	1.04	107.98	1	26.6	7.98	0	0	0	0	0	0	0	0	0	0	0	0.0000	0.0000	0.0000	0.0000;
	189	384.396897	-24.0389911	209.45	-46.67	1.04	484.396897	1	569.15	170.75	0	0	0	0	0	0	0	0	0	0	0	0.0000	0.0000	0.0000	0.0000;
];

%% branch data
%	fbus	tbus	r	x	b	rateA	rateB	rateC	ratio	angle	status	angmin	angmax	Pf	Qf	Pt	Qt	mu_Sf	mu_St	mu_angmin	mu_angmax
mpc.branch = [
	2	1	0.000673	0.003339	0	100	0	0	0	0	1	0	0	-7.3900	-2.1000	7.3904	2.1019	0.0000	0.0000	0.0000	0.0000;
	1	119	0.018542	0.119758	0.02285	221.1	0	0	0	0	1	0	0	12.2423	-0.5618	-12.2154	-1.6318	0.0000	0.0000	0.0000	0.0000;
	124	1	0.005615	0.036268	0.00692	221.1	0	0	0	0	1	0	0	40.1326	7.9357	-40.0427	-8.0774	0.0000	0.0000	0.0000	0.0000;
	193	1	0.004258	0.027501	0.00525	221.1	0	0	0	0	1	0	0	-20.3910	-6.9586	20.4100	6.5372	0.0000	0.0000	0.0000	0.0000;
	4	3	0.000573	0.003303	0	100	0	0	0	0	1	0	0	-1.7000	-0.4800	1.7000	0.4801	0.0000	0.0000	0.0000	0.0000;
	57	3	0.008505	0.058098	0.00988	221.1	0	0	0	0	1	0	0	-13.5592	-1.8600	13.5741	0.9158	0.0000	0.0000	0.0000	0.0000;
	3	137	0.005889	0.038035	0.00726	221.1	0	0	0	0	1	0	0	-15.2741	-1.3959	15.2871	0.7088	0.0000	0.0000	0.0000	0.0000;
	6	5	0.000694	0.003337	0	100	0	0	0	0	1	0	0	-7.9500	-2.2600	7.9504	2.2621	0.0000	0.0000	0.0000	0.0000;
	48	5	0.006246	0.043513	0.00711	221.1	0	0	0	0	1	0	0	-27.2181	-1.3485	27.2613	0.8863	0.0000	0.0000	0.0000	0.0000;
	5	64	0.007877	0.054875	0.00897	221.1	0	0	0	0	1	0	0	-35.2118	-3.1484	35.3031	2.8155	0.0000	0.0000	0.0000	0.0000;
	8	7	0.000634	0.003189	0	100	0	0	0	0	1	0	0	-23.7400	-6.7700	23.7438	6.7889	0.0000	0.0000	0.0000	0.0000;
	7	86	0.003756	0.024259	0.00463	221.1	0	0	0	0	1	0	0	-12.2887	-3.2946	12.2946	2.8568	0.0000	0.0000	0.0000	0.0000;
	7	101	0.003597	0.023232	0.00443	221.1	0	0	0	0	1	0	0	-24.5883	-6.1486	24.6107	5.8376	0.0000	0.0000	0.0000	0.0000;
	7	148	0.008667	0.05598	0.01068	221.1	0	0	0	0	1	0	0	13.1332	2.6543	-13.1178	-3.6477	0.0000	0.0000	0.0000	0.0000;
	10	9	0.000585	0.003967	0	100	0	0	0	0	1	0	0	-42.6800	-12.1600	42.6912	12.2358	0.0000	0.0000	0.0000	0.0000;
	9	124	0.008069	0.055123	0.00938	221.1	0	0	0	0	1	0	0	-39.5740	-9.8255	39.7033	9.7329	0.0000	0.0000	0.0000	0.0000;
	131	9	0.004139	0.026732	0.0051	221.1	0	0	0	0	1	0	0	-0.6793	0.5192	0.6793	-1.0453	0.0000	0.0000	0.0000	0.0000;
	9	141	0.004446	0.03097	0.00506	221.1	0	0	0	0	1	0	0	3.0471	0.6661	-3.0467	-1.1849	0.0000	0.0000	0.0000	0.0000;
	9	193	0.003695	0.025244	0.00429	221.1	0	0	0	0	1	0	0	-6.8436	-2.0311	6.8453	1.6004	0.0000	0.0000	0.0000	0.0000;
	12	11	0.000534	0.003533	0	100	0	0	0	0	1	0	0	-0.3000	-0.0900	0.3000	0.0900	0.0000	0.0000	0.0000	0.0000;
	13	11	0.000619	0.003606	0	100	0	0	0	0	1	0	0	-2.5200	-0.7200	2.5200	0.7202	0.0000	0.0000	0.0000	0.0000;
	11	15	0.010408	0.06722	0.01282	221.1	0	0	0	0	1	0	0	-14.5140	-2.6692	14.5344	1.3939	0.0000	0.0000	0.0000	0.0000;
	11	93	0.018394	0.128141	0.02095	221.1	0	0	0	0	1	0	0	1.4460	-1.4367	-1.4457	-0.8544	0.0000	0.0000	0.0000	0.0000;
	158	11	0.008519	0.058199	0.0099	221.1	0	0	0	0	1	0	0	-10.2387	-4.3126	10.2480	3.2956	0.0000	0.0000	0.0000	0.0000;
	15	14	0.000637	0.027526	0	300	0	0	1	0	1	0	0	-59.3053	18.7960	59.3277	-17.8278	0.0000	0.0000	0.0000	0.0000;
	14	121	0.007013	0.050098	0.09134	402.36	0	0	0	0	1	0	0	-135.6945	25.2125	136.9365	-26.2752	0.0000	0.0000	0.0000	0.0000;
	14	149	0.009133	0.065244	0.11895	402.36	0	0	0	0	1	0	0	76.3667	-7.3847	-75.8785	-2.0441	0.0000	0.0000	0.0000	0.0000;
	16	15	0.000553	0.0032	0	100	0	0	0	0	1	0	0	-44.7600	-12.7600	44.7709	12.8231	0.0000	0.0000	0.0000	0.0000;
	18	17	0.000503	0.003926	0	100	0	0	0	0	1	0	0	-0.7100	-0.2000	0.7100	0.2000	0.0000	0.0000	0.0000	0.0000;
	19	17	0.000514	0.003079	0	100	0	0	0	0	1	0	0	-0.7700	-0.2200	0.7700	0.2200	0.0000	0.0000	0.0000	0.0000;
	20	17	0.000623	0.003339	0	100	0	0	0	0	1	0	0	-1.1300	-0.3200	1.1300	0.3200	0.0000	0.0000	0.0000	0.0000;
	21	17	0.00062	0.00394	0	100	0	0	0	0	1	0	0	-4.6100	-1.3100	4.6101	1.3109	0.0000	0.0000	0.0000	0.0000;
	109	17	0.009789	0.068198	0.01115	221.1	0	0	0	0	1	0	0	31.7391	-1.9575	-31.6453	1.4373	0.0000	0.0000	0.0000	0.0000;
	17	120	0.010316	0.070473	0.01199	221.1	0	0	0	0	1	0	0	24.4252	-3.4882	-24.3658	2.6353	0.0000	0.0000	0.0000	0.0000;
	23	22	0.000616	0.003222	0	100	0	0	0	0	1	0	0	-1.4100	-0.4000	1.4100	0.4001	0.0000	0.0000	0.0000	0.0000;
	24	22	0.000687	0.003067	0	100	0	0	0	0	1	0	0	-2.4000	-0.6800	2.4000	0.6802	0.0000	0.0000	0.0000	0.0000;
	22	27	0.011379	0.073494	0.01402	221.1	0	0	0	0	1	0	0	-1.4099	-2.0219	1.4102	0.4933	0.0000	0.0000	0.0000	0.0000;
	158	22	0.012701	0.086769	0.01476	221.1	0	0	0	0	1	0	0	2.4012	-2.5431	-2.4002	0.9417	0.0000	0.0000	0.0000	0.0000;
	26	25	0.00061	0.003071	0	100	0	0	0	0	1	0	0	-1.3500	-0.3900	1.3500	0.3901	0.0000	0.0000	0.0000	0.0000;
	25	64	0.007643	0.053244	0.0087	221.1	0	0	0	0	1	0	0	-50.9193	9.3051	51.1084	-8.9323	0.0000	0.0000	0.0000	0.0000;
	199	25	0.009909	0.064003	0.01221	221.1	0	0	0	0	1	0	0	-49.3378	9.8621	49.5693	-9.6952	0.0000	0.0000	0.0000	0.0000;
	28	27	0.000587	0.003964	0	100	0	0	0	0	1	0	0	-2.3300	-0.6700	2.3300	0.6702	0.0000	0.0000	0.0000	0.0000;
	27	93	0.025172	0.175362	0.02867	221.1	0	0	0	0	1	0	0	-2.9564	-1.6496	2.9584	-1.4728	0.0000	0.0000	0.0000	0.0000;
	27	158	0.020429	0.131945	0.02517	221.1	0	0	0	0	1	0	0	-0.7839	0.4861	0.7846	-3.2267	0.0000	0.0000	0.0000	0.0000;
	30	29	0.000694	0.003131	0	100	0	0	0	0	1	0	0	-59.0900	-16.8400	59.1153	16.9542	0.0000	0.0000	0.0000	0.0000;
	124	29	0.005561	0.038742	0.00633	221.1	0	0	0	0	1	0	0	36.4442	10.6066	-36.3675	-10.7320	0.0000	0.0000	0.0000	0.0000;
	29	140	0.007895	0.055004	0.00899	221.1	0	0	0	0	1	0	0	-22.7478	-6.2222	22.7898	5.5778	0.0000	0.0000	0.0000	0.0000;
	32	31	0.000667	0.003884	0	100	0	0	0	0	1	0	0	-0.5100	-0.1500	0.5100	0.1500	0.0000	0.0000	0.0000	0.0000;
	33	31	0.000528	0.003639	0	100	0	0	0	0	1	0	0	-6.4400	-1.8400	6.4402	1.8416	0.0000	0.0000	0.0000	0.0000;
	177	31	0.008406	0.05856	0.00957	221.1	0	0	0	0	1	0	0	13.4263	8.7414	-13.4051	-9.5991	0.0000	0.0000	0.0000	0.0000;
	192	31	0.008088	0.05525	0.0094	221.1	0	0	0	0	1	0	0	-6.4466	-8.5270	6.4549	7.6075	0.0000	0.0000	0.0000	0.0000;
	35	34	0.000575	0.003674	0	100	0	0	0	0	1	0	0	-20.7600	-5.9200	20.7625	5.9361	0.0000	0.0000	0.0000	0.0000;
	34	54	0.006268	0.042819	0.00729	221.1	0	0	0	0	1	0	0	-37.2273	-6.1812	37.3107	5.9702	0.0000	0.0000	0.0000	0.0000;
	34	137	0.006911	0.044639	0.00852	221.1	0	0	0	0	1	0	0	16.4647	0.2452	-16.4471	-1.0388	0.0000	0.0000	0.0000	0.0000;
	37	36	0.000552	0.003328	0	100	0	0	0	0	1	0	0	-3.5700	-1.0200	3.5701	1.0204	0.0000	0.0000	0.0000	0.0000;
	38	36	0.00067	0.003511	0	100	0	0	0	0	1	0	0	-29.8100	-8.5000	29.8161	8.5319	0.0000	0.0000	0.0000	0.0000;
	58	36	0.010889	0.07439	0.01266	221.1	0	0	0	0	1	0	0	4.9956	8.1530	-4.9851	-9.4286	0.0000	0.0000	0.0000	0.0000;
	83	36	0.009615	0.066986	0.01095	221.1	0	0	0	0	1	0	0	28.4745	-0.5250	-28.4011	-0.1238	0.0000	0.0000	0.0000	0.0000;
	40	39	0.000505	0.003103	0	100	0	0	0	0	1	0	0	-2.0400	-0.5800	2.0400	0.5801	0.0000	0.0000	0.0000	0.0000;
	39	85	0.008702	0.060625	0.00991	221.1	0	0	0	0	1	0	0	-17.6706	2.9139	17.6975	-3.7665	0.0000	0.0000	0.0000	0.0000;
	159	39	0.007332	0.05108	0.00835	221.1	0	0	0	0	1	0	0	-8.2140	4.7716	8.2206	-5.6040	0.0000	0.0000	0.0000	0.0000;
	41	100	0.004595	0.029676	0.00566	221.1	0	0	0	0	1	0	0	-12.2615	-31.3794	12.3084	31.0572	0.0000	0.0000	0.0000	0.0000;
	41	163	0.003165	0.021623	0.00368	221.1	0	0	0	0	1	0	0	-0.7618	15.1831	0.7686	-15.5376	0.0000	0.0000	0.0000	0.0000;
	41	180	0.009408	0.060766	0.01159	221.1	0	0	0	0	1	0	0	-25.3167	5.2664	25.3748	-6.1579	0.0000	0.0000	0.0000	0.0000;
	44	42	0.012256	0.085383	0.01396	221.1	0	0	0	0	1	0	0	13.8860	-5.2053	-13.8613	3.8989	0.0000	0.0000	0.0000	0.0000;
	181	42	0.008008	0.05579	0.00912	221.1	0	0	0	0	1	0	0	-3.2374	5.9854	3.2413	-6.9289	0.0000	0.0000	0.0000	0.0000;
	43	84	0.007509	0.051295	0.00873	221.1	0	0	0	0	1	0	0	-20.0446	-1.4769	20.0738	0.7714	0.0000	0.0000	0.0000	0.0000;
	43	132	0.011052	0.075503	0.01285	221.1	0	0	0	0	1	0	0	17.9546	0.8869	-17.9199	-1.9758	0.0000	0.0000	0.0000	0.0000;
	44	200	0.014813	0.101195	0.01722	221.1	0	0	0	0	1	0	0	-18.0360	4.0253	18.0850	-5.5066	0.0000	0.0000	0.0000	0.0000;
	46	45	0.000936	0.049195	0	160	0	0	1	0	1	0	0	-31.3903	-0.5262	31.3988	0.9764	0.0000	0.0000	0.0000	0.0000;
	55	45	0.002593	0.018527	0.03378	402.36	0	0	0	0	1	0	0	-23.9423	-5.9468	23.9565	2.4103	0.0000	0.0000	0.0000	0.0000;
	102	45	0.0029	0.020715	0.03777	402.36	0	0	0	0	1	0	0	18.4072	-8.7446	-18.3968	4.7485	0.0000	0.0000	0.0000	0.0000;
	45	187	0.003474	0.024821	0.04525	402.36	0	0	0	0	1	0	0	-36.9585	-8.1352	37.0035	3.5649	0.0000	0.0000	0.0000	0.0000;
	61	46	0.006971	0.048561	0.00794	221.1	0	0	0	0	1	0	0	-8.8627	-4.7835	8.8691	3.9747	0.0000	0.0000	0.0000	0.0000;
	122	46	0.010129	0.065419	0.01248	221.1	0	0	0	0	1	0	0	-16.1546	4.0843	16.1812	-5.2585	0.0000	0.0000	0.0000	0.0000;
	47	54	0.006678	0.045623	0.00776	221.1	0	0	0	0	1	0	0	12.6220	1.7688	-12.6119	-2.5360	0.0000	0.0000	0.0000	0.0000;
	47	66	0.007339	0.047401	0.00904	221.1	0	0	0	0	1	0	0	-14.1620	-2.2088	14.1759	1.3202	0.0000	0.0000	0.0000	0.0000;
	49	48	0.027149	0.532021	0	28.9	0	0	1	0	1	0	0	1.3600	0.8892	-1.3593	-0.8762	0.0000	0.0000	0.0000	0.0000;
	50	48	0.021719	0.404167	0	28.7	0	0	1	0	1	0	0	1.3600	1.1863	-1.3593	-1.1741	0.0000	0.0000	0.0000	0.0000;
	51	48	0.027149	0.612711	0	24.3	0	0	1	0	1	0	0	1.3600	0.7734	-1.3594	-0.7595	0.0000	0.0000	0.0000	0.0000;
	52	48	0.021719	0.379817	0	24.3	0	0	1	0	1	0	0	1.3600	1.2619	-1.3593	-1.2498	0.0000	0.0000	0.0000	0.0000;
	53	48	0.02121	0.576549	0	35.3	0	0	1	0	1	0	0	2.7200	0.7999	-2.7184	-0.7571	0.0000	0.0000	0.0000	0.0000;
	48	74	0.007959	0.054369	0.00925	221.1	0	0	0	0	1	0	0	33.5539	5.6451	-33.4675	-6.0404	0.0000	0.0000	0.0000	0.0000;
	54	66	0.007051	0.045544	0.00869	221.1	0	0	0	0	1	0	0	-27.3588	-4.1942	27.4087	3.5784	0.0000	0.0000	0.0000	0.0000;
	56	55	0.005152	0.124653	0	160	0	0	1	0	1	0	0	-6.5998	-0.2342	6.6019	0.2848	0.0000	0.0000	0.0000	0.0000;
	81	55	0.005467	0.039054	0.0712	402.36	0	0	0	0	1	0	0	-74.8387	10.3996	75.1331	-15.9624	0.0000	0.0000	0.0000	0.0000;
	55	102	0.001246	0.008902	0.01623	402.36	0	0	0	0	1	0	0	-92.5200	6.4712	92.6198	-7.5049	0.0000	0.0000	0.0000	0.0000;
	55	112	0.004166	0.029763	0.05426	402.36	0	0	0	0	1	0	0	6.9108	6.9902	-6.9051	-12.7686	0.0000	0.0000	0.0000	0.0000;
	55	128	0.003415	0.024395	0.04448	402.36	0	0	0	0	1	0	0	27.8165	8.1631	-27.7884	-12.7312	0.0000	0.0000	0.0000	0.0000;
	56	103	0.004282	0.02983	0.00488	221.1	0	0	0	0	1	0	0	5.2898	-0.1358	-5.2887	-0.3806	0.0000	0.0000	0.0000	0.0000;
	57	159	0.00752	0.051369	0.00874	221.1	0	0	0	0	1	0	0	10.7392	1.0600	-10.7308	-1.9253	0.0000	0.0000	0.0000	0.0000;
	95	58	0.009836	0.063526	0.01212	221.1	0	0	0	0	1	0	0	-0.7304	16.4271	0.7567	-17.5682	0.0000	0.0000	0.0000	0.0000;
	177	58	0.014049	0.095972	0.01633	221.1	0	0	0	0	1	0	0	10.0062	-9.7793	-9.9823	8.2051	0.0000	0.0000	0.0000	0.0000;
	59	119	0.011209	0.072397	0.01381	221.1	0	0	0	0	1	0	0	5.3384	1.9632	-5.3346	-3.3682	0.0000	0.0000	0.0000	0.0000;
	59	139	0.009665	0.062426	0.01191	221.1	0	0	0	0	1	0	0	-10.0684	-3.3132	10.0785	2.1392	0.0000	0.0000	0.0000	0.0000;
	60	97	0.012274	0.079279	0.01512	221.1	0	0	0	0	1	0	0	34.9931	-2.5263	-34.8509	1.8477	0.0000	0.0000	0.0000	0.0000;
	134	60	0.009007	0.062749	0.01026	221.1	0	0	0	0	1	0	0	38.9215	-1.6416	-38.7931	1.4463	0.0000	0.0000	0.0000	0.0000;
	61	103	0.006539	0.045556	0.00745	221.1	0	0	0	0	1	0	0	-11.6873	-1.0765	11.6956	0.3356	0.0000	0.0000	0.0000	0.0000;
	159	62	0.008634	0.058979	0.01003	221.1	0	0	0	0	1	0	0	17.5548	-3.2463	-17.5290	2.3658	0.0000	0.0000	0.0000	0.0000;
	160	62	0.007628	0.053144	0.00869	221.1	0	0	0	0	1	0	0	3.8868	7.5858	-3.8810	-8.4658	0.0000	0.0000	0.0000	0.0000;
	63	66	0.011949	0.083244	0.01361	221.1	0	0	0	0	1	0	0	-8.1538	3.8088	8.1634	-5.2207	0.0000	0.0000	0.0000	0.0000;
	63	184	0.017963	0.116023	0.02214	221.1	0	0	0	0	1	0	0	0.1738	-6.0788	-0.1699	3.6801	0.0000	0.0000	0.0000	0.0000;
	65	64	0.00128	0.10157	0	195.5	0	0	1	0	1	0	0	86.5000	0.9104	-86.4114	6.1168	0.0000	0.0000	0.0000	0.0000;
	67	66	0.020951	0.144786	0	30	0	0	1	0	1	0	0	1.4100	-0.9024	-1.4095	0.9062	0.0000	0.0000	0.0000	0.0000;
	68	66	0.00689	0.264997	0	73	0	0	1	0	1	0	0	8.3800	-0.5141	-8.3755	0.6868	0.0000	0.0000	0.0000	0.0000;
	69	66	0.00441	0.09499	0	70.5	0	0	1	0	1	0	0	8.3800	-1.4247	-8.3771	1.4881	0.0000	0.0000	0.0000	0.0000;
	70	66	0.00689	0.199449	0	70.5	0	0	1	0	1	0	0	8.3800	-0.7325	-8.3755	0.8630	0.0000	0.0000	0.0000	0.0000;
	71	66	0.003528	0.081544	0	68	0	0	1	0	1	0	0	8.3800	-1.5785	-8.3776	1.6333	0.0000	0.0000	0.0000	0.0000;
	72	66	0.003528	0.074599	0	68	0	0	1	0	1	0	0	8.3800	-1.7302	-8.3776	1.7807	0.0000	0.0000	0.0000	0.0000;
	73	66	0.00689	0.146423	0	65	0	0	1	0	1	0	0	8.3800	-1.0384	-8.3755	1.1349	0.0000	0.0000	0.0000	0.0000;
	66	158	0.004993	0.032251	0.00615	221.1	0	0	0	0	1	0	0	1.9202	-8.1709	-1.9172	7.5224	0.0000	0.0000	0.0000	0.0000;
	74	190	0.008894	0.06076	0.01034	221.1	0	0	0	0	1	0	0	14.7075	0.6904	-14.6892	-1.6592	0.0000	0.0000	0.0000	0.0000;
	76	75	0.038464	0.784328	0	24.3	0	0	1	0	1	0	0	1.2000	1.4065	-1.1988	-1.3817	0.0000	0.0000	0.0000	0.0000;
	77	75	0.08013	2.192105	0	7.4	0	0	1	0	1	0	0	0.7200	0.5014	-0.7194	-0.4858	0.0000	0.0000	0.0000	0.0000;
	78	75	0.008544	0.181406	0	65	0	0	1	0	1	0	0	0.0000	-0.0000	0.0000	-0.0000	0.0000	0.0000	0.0000	0.0000;
	79	75	0.01068	0.277774	0	62.1	0	0	1	0	1	0	0	0.0000	-0.0000	0.0000	-0.0000	0.0000	0.0000	0.0000	0.0000;
	108	75	0.010988	0.070969	0.01354	221.1	0	0	0	0	1	0	0	-12.6117	-2.5604	12.6287	1.2399	0.0000	0.0000	0.0000	0.0000;
	75	157	0.013487	0.087112	0.01662	221.1	0	0	0	0	1	0	0	-14.3104	-0.4024	14.3366	-1.1913	0.0000	0.0000	0.0000	0.0000;
	80	100	0.021463	0.149525	0.02444	221.1	0	0	0	0	1	0	0	6.6357	-7.8316	-6.6188	5.2474	0.0000	0.0000	0.0000	0.0000;
	80	143	0.020594	0.14347	0.02345	221.1	0	0	0	0	1	0	0	-8.1157	7.4116	8.1423	-9.7741	0.0000	0.0000	0.0000	0.0000;
	82	81	0.00097	0.042371	0	250	0	0	1	0	1	0	0	-36.7982	-5.8366	36.8108	6.3854	0.0000	0.0000	0.0000	0.0000;
	81	178	0.006598	0.047137	0.08594	402.36	0	0	0	0	1	0	0	38.0279	-16.7849	-37.9303	8.1910	0.0000	0.0000	0.0000	0.0000;
	82	195	0.003845	0.026265	0.00447	221.1	0	0	0	0	1	0	0	29.1982	3.6666	-29.1671	-3.9321	0.0000	0.0000	0.0000	0.0000;
	83	146	0.005382	0.036767	0.00626	221.1	0	0	0	0	1	0	0	-57.1860	1.5160	57.3519	-1.0493	0.0000	0.0000	0.0000	0.0000;
	83	186	0.00792	0.055174	0.00902	221.1	0	0	0	0	1	0	0	25.5716	-1.8810	-25.5227	1.2647	0.0000	0.0000	0.0000	0.0000;
	84	113	0.006652	0.04544	0.00773	221.1	0	0	0	0	1	0	0	-23.8238	-1.8414	23.8603	1.2856	0.0000	0.0000	0.0000	0.0000;
	85	120	0.007786	0.050291	0.00959	221.1	0	0	0	0	1	0	0	-22.5275	2.3865	22.5658	-3.1453	0.0000	0.0000	0.0000	0.0000;
	86	101	0.00512	0.033072	0.00631	221.1	0	0	0	0	1	0	0	-8.2628	-2.2671	8.2663	1.6404	0.0000	0.0000	0.0000	0.0000;
	142	86	0.003387	0.023141	0.00394	221.1	0	0	0	0	1	0	0	1.0461	-1.3147	-1.0460	0.9100	0.0000	0.0000	0.0000	0.0000;
	86	193	0.006606	0.042664	0.00814	221.1	0	0	0	0	1	0	0	-11.2358	-3.8497	11.2447	3.0676	0.0000	0.0000	0.0000	0.0000;
	88	87	0.000832	0.034189	0	350	0	0	1	0	1	0	0	-65.6748	-2.1523	65.7082	3.5257	0.0000	0.0000	0.0000	0.0000;
	149	87	0.001621	0.011579	0.02111	402.36	0	0	0	0	1	0	0	65.7732	1.7118	-65.7082	-3.5257	0.0000	0.0000	0.0000	0.0000;
	88	150	0.00557	0.035973	0.00686	221.1	0	0	0	0	1	0	0	-25.5307	-4.6409	25.5654	4.1258	0.0000	0.0000	0.0000	0.0000;
	176	88	0.003859	0.024922	0.00475	221.1	0	0	0	0	1	0	0	-29.0745	-6.9345	29.1067	6.6327	0.0000	0.0000	0.0000	0.0000;
	88	194	0.004258	0.029088	0.00495	221.1	0	0	0	0	1	0	0	12.7588	-13.8994	-12.7450	13.4600	0.0000	0.0000	0.0000	0.0000;
	90	89	0.0601	2.279922	0	8.6	0	0	1	0	1	0	0	0.9600	0.1319	-0.9595	-0.1121	0.0000	0.0000	0.0000	0.0000;
	91	89	0.024614	0.503424	0	32	0	0	1	0	1	0	0	1.5000	0.5996	-1.4994	-0.5875	0.0000	0.0000	0.0000	0.0000;
	92	89	0.019539	0.36204	0	35.3	0	0	1	0	1	0	0	0.0000	-0.0000	0.0000	-0.0000	0.0000	0.0000	0.0000	0.0000;
	89	95	0.008734	0.056409	0.01076	221.1	0	0	0	0	1	0	0	2.2907	-16.5295	-2.2696	15.4997	0.0000	0.0000	0.0000	0.0000;
	188	89	0.00805	0.051996	0.00992	221.1	0	0	0	0	1	0	0	62.9761	1.5097	-62.6818	-0.6810	0.0000	0.0000	0.0000	0.0000;
	94	93	0.01068	0.280602	0	62.1	0	0	1	0	1	0	0	5.4000	-2.5270	-5.3965	2.6193	0.0000	0.0000	0.0000	0.0000;
	93	191	0.022088	0.142662	0.02722	221.1	0	0	0	0	1	0	0	0.8237	-1.1621	-0.8236	-1.8154	0.0000	0.0000	0.0000	0.0000;
	122	96	0.01062	0.073986	0.01209	221.1	0	0	0	0	1	0	0	28.5137	-5.4965	-28.4314	4.7630	0.0000	0.0000	0.0000	0.0000;
	96	143	0.015858	0.102423	0.01954	221.1	0	0	0	0	1	0	0	35.1036	-3.0807	-34.9223	2.1441	0.0000	0.0000	0.0000	0.0000;
	96	188	0.010903	0.070421	0.01343	221.1	0	0	0	0	1	0	0	-9.6322	-2.5223	9.6418	1.1292	0.0000	0.0000	0.0000	0.0000;
	97	200	0.01318	0.085125	0.01624	221.1	0	0	0	0	1	0	0	27.5209	-3.9377	-27.4250	2.8466	0.0000	0.0000	0.0000	0.0000;
	99	98	0.000643	0.030516	0	250	0	0	1	0	1	0	0	-50.5904	-12.6744	50.6072	13.4694	0.0000	0.0000	0.0000	0.0000;
	98	123	0.0047	0.033574	0.06121	402.36	0	0	0	0	1	0	0	-50.6072	-13.4694	50.7262	7.8401	0.0000	0.0000	0.0000	0.0000;
	99	142	0.007605	0.052982	0.00866	221.1	0	0	0	0	1	0	0	38.4204	9.2044	-38.3061	-9.3053	0.0000	0.0000	0.0000	0.0000;
	100	174	0.010698	0.074531	0.01218	221.1	0	0	0	0	1	0	0	-20.6548	12.3567	20.7121	-13.3052	0.0000	0.0000	0.0000	0.0000;
	100	179	0.007093	0.049413	0.00808	221.1	0	0	0	0	1	0	0	-32.9617	24.5410	33.0707	-24.6739	0.0000	0.0000	0.0000	0.0000;
	100	184	0.012745	0.08879	0.01451	221.1	0	0	0	0	1	0	0	10.5370	5.2414	-10.5201	-6.7301	0.0000	0.0000	0.0000	0.0000;
	110	101	0.00196	0.012657	0.00241	221.1	0	0	0	0	1	0	0	-1.0153	0.4954	1.0154	-0.7437	0.0000	0.0000	0.0000	0.0000;
	101	117	0.005245	0.035833	0.0061	221.1	0	0	0	0	1	0	0	-37.4286	-6.1416	37.5016	6.0089	0.0000	0.0000	0.0000	0.0000;
	101	141	0.003144	0.020305	0.00387	221.1	0	0	0	0	1	0	0	3.0162	-0.7428	-3.0160	0.3456	0.0000	0.0000	0.0000	0.0000;
	103	102	0.001709	0.054578	0	250	0	0	1	0	1	0	0	-33.2258	-1.3496	33.2434	1.9117	0.0000	0.0000	0.0000	0.0000;
	104	102	0.0021	0.087749	0	130	0	0	1	0	1	0	0	67.6000	3.0415	-67.5111	0.6734	0.0000	0.0000	0.0000	0.0000;
	105	102	0.00097	0.059419	0	260	0	0	1	0	1	0	0	154.8000	8.2115	-154.5845	4.9899	0.0000	0.0000	0.0000	0.0000;
	102	128	0.0027	0.019292	0.03517	402.36	0	0	0	0	1	0	0	77.8252	8.6744	-77.6705	-11.3417	0.0000	0.0000	0.0000	0.0000;
	103	106	0.007749	0.053987	0.00883	221.1	0	0	0	0	1	0	0	26.8188	1.3946	-26.7667	-1.9767	0.0000	0.0000	0.0000	0.0000;
	130	106	0.006991	0.047761	0.00813	221.1	0	0	0	0	1	0	0	-24.6665	-1.9782	24.7067	1.3867	0.0000	0.0000	0.0000	0.0000;
	107	113	0.006748	0.046101	0.00784	221.1	0	0	0	0	1	0	0	-26.6451	-7.5122	26.6948	7.0374	0.0000	0.0000	0.0000	0.0000;
	107	129	0.005168	0.035307	0.00601	221.1	0	0	0	0	1	0	0	-32.3659	-5.4345	32.4196	5.1783	0.0000	0.0000	0.0000	0.0000;
	192	107	0.003939	0.025441	0.00485	221.1	0	0	0	0	1	0	0	-6.4494	1.5430	6.4511	-2.0332	0.0000	0.0000	0.0000	0.0000;
	108	198	0.024792	0.160126	0.03055	221.1	0	0	0	0	1	0	0	3.1917	-0.1196	-3.1888	-3.0698	0.0000	0.0000	0.0000	0.0000;
	186	109	0.008774	0.059942	0.0102	221.1	0	0	0	0	1	0	0	37.0125	-0.7907	-36.8991	0.4875	0.0000	0.0000	0.0000	0.0000;
	110	193	0.003444	0.022243	0.00424	221.1	0	0	0	0	1	0	0	-9.8447	-3.5854	9.8483	3.1711	0.0000	0.0000	0.0000	0.0000;
	163	111	0.005281	0.034111	0.00651	221.1	0	0	0	0	1	0	0	8.1652	0.9786	-8.1619	-1.6645	0.0000	0.0000	0.0000	0.0000;
	111	175	0.00795	0.055386	0.00905	221.1	0	0	0	0	1	0	0	-0.6581	-0.8455	0.6581	-0.1371	0.0000	0.0000	0.0000	0.0000;
	113	112	0.002077	0.058615	0	350	0	0	1	0	1	0	0	-90.4854	-16.2327	90.6536	20.9794	0.0000	0.0000	0.0000	0.0000;
	114	112	0.06	0.434013	0	20	0	0	1	0	1	0	0	1.4000	1.2467	-1.3981	-1.2326	0.0000	0.0000	0.0000	0.0000;
	115	112	0.00128	0.062771	0	200	0	0	1	0	1	0	0	133.5000	12.4049	-133.2873	-1.9724	0.0000	0.0000	0.0000	0.0000;
	128	112	0.001295	0.009255	0.01687	402.36	0	0	0	0	1	0	0	-50.9052	3.4287	50.9368	-5.0058	0.0000	0.0000	0.0000	0.0000;
	113	192	0.005418	0.034995	0.00668	221.1	0	0	0	0	1	0	0	39.9304	7.9097	-39.8441	-8.0460	0.0000	0.0000	0.0000	0.0000;
	117	116	0.000517	0.034943	0	300	0	0	1	0	1	0	0	-70.9794	-17.5051	71.0059	19.3021	0.0000	0.0000	0.0000	0.0000;
	133	116	0.00389	0.027793	0.05067	402.36	0	0	0	0	1	0	0	71.2025	15.3330	-71.0059	-19.3021	0.0000	0.0000	0.0000	0.0000;
	117	132	0.011912	0.082984	0.01357	221.1	0	0	0	0	1	0	0	9.0525	4.3873	-9.0401	-5.7042	0.0000	0.0000	0.0000	0.0000;
	117	162	0.01617	0.104442	0.01993	221.1	0	0	0	0	1	0	0	-9.6548	-2.6011	9.6697	0.6195	0.0000	0.0000	0.0000	0.0000;
	131	118	0.00718	0.046377	0.00885	221.1	0	0	0	0	1	0	0	-29.5707	-9.1392	29.6368	8.6470	0.0000	0.0000	0.0000	0.0000;
	118	134	0.011598	0.0808	0.01321	221.1	0	0	0	0	1	0	0	-35.7589	-7.0793	35.9054	6.7070	0.0000	0.0000	0.0000	0.0000;
	118	198	0.009487	0.064809	0.01103	221.1	0	0	0	0	1	0	0	2.1820	-2.6877	-2.1812	1.5398	0.0000	0.0000	0.0000	0.0000;
	122	121	0.000786	0.063023	0	200	0	0	1	0	1	0	0	-27.7991	-2.9878	27.8047	3.4440	0.0000	0.0000	0.0000	0.0000;
	121	178	0.008903	0.063604	0.11596	402.36	0	0	0	0	1	0	0	68.4168	-14.5084	-68.0270	4.7182	0.0000	0.0000	0.0000	0.0000;
	187	121	0.001063	0.007593	0.01384	402.36	0	0	0	0	1	0	0	233.7052	-34.9320	-233.1581	37.3396	0.0000	0.0000	0.0000	0.0000;
	124	123	0.000329	0.017481	0	400	0	0	1	0	1	0	0	-160.2504	-39.2282	160.3358	43.7641	0.0000	0.0000	0.0000	0.0000;
	125	123	0.00448	0.104562	0	170	0	0	1	0	1	0	0	39.0200	7.2353	-38.9548	-5.7128	0.0000	0.0000	0.0000	0.0000;
	126	123	0.00148	0.066043	0	170	0	0	1	0	1	0	0	39.0200	12.5334	-38.9970	-11.5078	0.0000	0.0000	0.0000	0.0000;
	127	123	0.001	0.031691	0	170	0	0	1	0	1	0	0	39.0200	25.9630	-38.9997	-25.3194	0.0000	0.0000	0.0000	0.0000;
	123	133	0.001459	0.010423	0.019	402.36	0	0	0	0	1	0	0	-76.3872	-6.4725	76.4676	5.0208	0.0000	0.0000	0.0000	0.0000;
	156	123	0.001117	0.007981	0.01455	402.36	0	0	0	0	1	0	0	17.7266	1.0660	-17.7233	-2.5916	0.0000	0.0000	0.0000	0.0000;
	124	193	0.006577	0.04582	0.00749	221.1	0	0	0	0	1	0	0	43.9703	10.9530	-43.8410	-10.8320	0.0000	0.0000	0.0000	0.0000;
	129	128	0.000753	0.044453	0	250	0	0	1	0	1	0	0	-109.6596	-27.1883	109.7520	32.6423	0.0000	0.0000	0.0000	0.0000;
	128	133	0.009554	0.068257	0.12444	402.36	0	0	0	0	1	0	0	46.6121	-11.9981	-46.4153	0.1101	0.0000	0.0000	0.0000	0.0000;
	130	144	0.022678	0.157988	0.02583	221.1	0	0	0	0	1	0	0	20.2665	0.7282	-20.1779	-2.8369	0.0000	0.0000	0.0000	0.0000;
	134	133	0.0002	0.013328	0	400	0	0	1	0	1	0	0	-119.5428	-11.7375	119.5699	13.5446	0.0000	0.0000	0.0000	0.0000;
	135	133	0.00043	0.033512	0	580	0	0	1	0	1	0	0	133.9200	21.4284	-133.8469	-15.7293	0.0000	0.0000	0.0000	0.0000;
	136	133	0.00043	0.027478	0	580	0	0	1	0	1	0	0	133.9200	25.0163	-133.8462	-20.3010	0.0000	0.0000	0.0000	0.0000;
	156	133	0.001958	0.013985	0.0255	402.36	0	0	0	0	1	0	0	-46.8279	-4.4526	46.8684	2.0218	0.0000	0.0000	0.0000	0.0000;
	134	140	0.010445	0.071357	0.01214	221.1	0	0	0	0	1	0	0	31.1010	7.3277	-30.9998	-7.9178	0.0000	0.0000	0.0000	0.0000;
	134	186	0.014463	0.093412	0.01782	221.1	0	0	0	0	1	0	0	13.6150	-0.6557	-13.5898	-1.0740	0.0000	0.0000	0.0000	0.0000;
	138	139	0.026477	0.184455	0.03015	221.1	0	0	0	0	1	0	0	16.9928	1.4320	-16.9185	-4.0892	0.0000	0.0000	0.0000	0.0000;
	138	195	0.008728	0.05637	0.01075	221.1	0	0	0	0	1	0	0	-19.0828	-2.0320	19.1129	1.0814	0.0000	0.0000	0.0000	0.0000;
	141	148	0.01019	0.065817	0.01256	221.1	0	0	0	0	1	0	0	18.9402	4.4395	-18.9022	-5.4823	0.0000	0.0000	0.0000	0.0000;
	141	193	0.002896	0.018702	0.00357	221.1	0	0	0	0	1	0	0	-14.2976	-4.0102	14.3037	3.6815	0.0000	0.0000	0.0000	0.0000;
	162	144	0.006962	0.048504	0.00793	221.1	0	0	0	0	1	0	0	-11.1197	-1.0295	11.1279	0.2569	0.0000	0.0000	0.0000	0.0000;
	145	176	0.008799	0.060111	0.01023	221.1	0	0	0	0	1	0	0	-10.0559	-2.5468	10.0645	1.5145	0.0000	0.0000	0.0000	0.0000;
	185	145	0.010839	0.075509	0.01234	221.1	0	0	0	0	1	0	0	7.4902	1.1782	-7.4841	-2.4532	0.0000	0.0000	0.0000	0.0000;
	147	146	0.0025	0.10181	0	130.6	0	0	1	0	1	0	0	92.4000	8.7849	-92.2009	-0.6758	0.0000	0.0000	0.0000	0.0000;
	146	177	0.011064	0.07708	0.0126	221.1	0	0	0	0	1	0	0	34.8489	1.7251	-34.7225	-2.1821	0.0000	0.0000	0.0000	0.0000;
	150	149	0.000412	0.020251	0	400	0	0	1	0	1	0	0	-104.2989	3.7056	104.3404	-1.6649	0.0000	0.0000	0.0000	0.0000;
	151	149	0.02267	0.625521	0	20	0	0	1	0	1	0	0	1.6200	0.0253	-1.6194	-0.0101	0.0000	0.0000	0.0000	0.0000;
	152	149	0.00249	0.141687	0	100	0	0	1	0	1	0	0	23.1700	0.2820	-23.1576	0.4214	0.0000	0.0000	0.0000	0.0000;
	153	149	0.00549	0.184603	0	100	0	0	1	0	1	0	0	23.1700	0.0284	-23.1428	0.8878	0.0000	0.0000	0.0000	0.0000;
	154	149	0.00249	0.10294	0	100	0	0	1	0	1	0	0	23.1700	0.1596	-23.1576	0.3514	0.0000	0.0000	0.0000	0.0000;
	155	149	0.00249	0.099835	0	100	0	0	1	0	1	0	0	23.1700	0.1489	-23.1576	0.3467	0.0000	0.0000	0.0000	0.0000;
	185	150	0.013458	0.091934	0.01564	221.1	0	0	0	0	1	0	0	-18.2802	-4.2482	18.3237	2.8640	0.0000	0.0000	0.0000	0.0000;
	194	150	0.003138	0.021435	0.00365	221.1	0	0	0	0	1	0	0	-60.3007	11.0462	60.4098	-10.6953	0.0000	0.0000	0.0000	0.0000;
	157	156	0.000592	0.045654	0	300	0	0	1	0	1	0	0	-29.0966	-3.0187	29.1013	3.3866	0.0000	0.0000	0.0000	0.0000;
	161	160	0.00139	0.080288	0	180.2	0	0	1	0	1	0	0	0.0000	-0.0000	0.0000	-0.0000	0.0000	0.0000	0.0000	0.0000;
	160	181	0.004296	0.029345	0.00499	221.1	0	0	0	0	1	0	0	-3.8868	-7.5858	3.8895	7.0730	0.0000	0.0000	0.0000	0.0000;
	164	163	0.008207	0.11301	0	58.1	0	0	1	0	1	0	0	0.0000	-0.0000	0.0000	-0.0000	0.0000	0.0000	0.0000	0.0000;
	165	163	0.0074	0.301657	0	65	0	0	1	0	1	0	0	0.0000	-0.0000	0.0000	-0.0000	0.0000	0.0000	0.0000	0.0000;
	166	163	0.016368	0.382075	0	42	0	0	1	0	1	0	0	0.0000	-0.0000	0.0000	-0.0000	0.0000	0.0000	0.0000	0.0000;
	167	163	0.010476	0.196499	0	42	0	0	1	0	1	0	0	2.8200	-1.6523	-2.8190	1.6717	0.0000	0.0000	0.0000	0.0000;
	168	163	0.018	0.490983	0	40	0	0	1	0	1	0	0	0.0000	-0.0000	0.0000	-0.0000	0.0000	0.0000	0.0000	0.0000;
	169	163	0.016368	0.396417	0	40	0	0	1	0	1	0	0	0.0000	-0.0000	0.0000	-0.0000	0.0000	0.0000	0.0000	0.0000;
	170	163	0.016368	0.374902	0	35.6	0	0	1	0	1	0	0	2.8200	-0.9002	-2.8187	0.9306	0.0000	0.0000	0.0000	0.0000;
	163	179	0.00579	0.039557	0.00673	221.1	0	0	0	0	1	0	0	-49.0962	-1.0933	49.2246	1.2361	0.0000	0.0000	0.0000	0.0000;
	171	190	0.009866	0.0674	0.01147	221.1	0	0	0	0	1	0	0	2.1018	1.9145	-2.1008	-3.1208	0.0000	0.0000	0.0000	0.0000;
	195	171	0.011644	0.081116	0.01326	221.1	0	0	0	0	1	0	0	10.0542	2.8507	-10.0418	-4.1745	0.0000	0.0000	0.0000	0.0000;
	180	172	0.015296	0.106558	0.01742	221.1	0	0	0	0	1	0	0	-6.7018	0.5477	6.7084	-2.4030	0.0000	0.0000	0.0000	0.0000;
	199	172	0.024005	0.155042	0.02958	221.1	0	0	0	0	1	0	0	12.1219	-3.8810	-12.0884	0.8730	0.0000	0.0000	0.0000	0.0000;
	173	174	0.015373	0.099293	0.01894	221.1	0	0	0	0	1	0	0	-16.6833	-3.3076	16.7233	1.4938	0.0000	0.0000	0.0000	0.0000;
	173	175	0.008572	0.055363	0.01056	221.1	0	0	0	0	1	0	0	7.9733	0.8276	-7.9681	-1.9429	0.0000	0.0000	0.0000	0.0000;
	174	188	0.017952	0.12264	0.02087	221.1	0	0	0	0	1	0	0	-40.2054	11.0214	40.4936	-11.3328	0.0000	0.0000	0.0000	0.0000;
	179	178	0.000495	0.036157	0	250	0	0	1	0	1	0	0	-105.9053	16.7078	105.9573	-12.9092	0.0000	0.0000	0.0000	0.0000;
	180	191	0.026393	0.183866	0.03006	221.1	0	0	0	0	1	0	0	6.4168	-2.9680	-6.4064	-0.2446	0.0000	0.0000	0.0000	0.0000;
	180	199	0.012185	0.078698	0.01501	221.1	0	0	0	0	1	0	0	-32.8298	6.3681	32.9559	-7.1912	0.0000	0.0000	0.0000	0.0000;
	182	181	0.01099	0.297746	0	60.3	0	0	1	0	1	0	0	5.2500	2.1561	-5.2467	-2.0674	0.0000	0.0000	0.0000	0.0000;
	183	181	0.004627	0.114254	0	65	0	0	1	0	1	0	0	7.9800	5.7361	-7.9759	-5.6340	0.0000	0.0000	0.0000	0.0000;
	181	194	0.004395	0.028384	0.00542	221.1	0	0	0	0	1	0	0	-35.4096	-19.0269	35.4756	18.8710	0.0000	0.0000	0.0000	0.0000;
	188	187	0.001394	0.044762	0	400	0	0	1	0	1	0	0	-113.1115	8.6938	113.2767	-3.3899	0.0000	0.0000	0.0000	0.0000;
	189	187	0.0003	0.007815	0	740	0	0	1	0	1	0	0	384.3969	-24.0390	-383.9855	34.7571	0.0000	0.0000	0.0000	0.0000;
	196	195	0.00285	0.060038	0	87.7	0	0	1	0	1	0	0	0.0000	-0.0000	0.0000	-0.0000	0.0000	0.0000	0.0000	0.0000;
	197	195	0.00285	0.191484	0	87.7	0	0	1	0	1	0	0	0.0000	-0.0000	0.0000	-0.0000	0.0000	0.0000	0.0000	0.0000;
];

%%-----  OPF Data  -----%%
%% generator cost data
%	1	startup	shutdown	n	x1	y1	...	xn	yn
%	2	startup	shutdown	n	c(n-1)	...	c0
mpc.gencost = [
	2	0	0	3	0.002	19	236.12;
	2	0	0	3	0.002	19	236.12;
	2	0	0	3	0.002	19	236.12;
	2	0	0	3	0.002	19	236.12;
	2	0	0	3	0.002	19	236.24;
	2	0	0	3	0	0	0;
	2	0	0	3	0.002	19	236.13;
	2	0	0	3	0.002	19	236.74;
	2	0	0	3	0.002	19	236.74;
	2	0	0	3	0.002	19	236.74;
	2	0	0	3	0.002	19	236.74;
	2	0	0	3	0.002	19	236.74;
	2	0	0	3	0.002	19	236.74;
	2	0	0	3	0.002	23.157	606;
	2	0	0	3	0.002	23.146	603.6;
	2	0	0	3	0.002	23.152	604.8;
	2	0	0	3	0.002	23.164	607.5;
	2	0	0	3	0.002	19	236.48;
	2	0	0	3	0	0	0;
	2	0	0	3	0	0	0;
	2	0	0	3	0	0	0;
	2	0	0	3	0	0	0;
	2	0	0	3	0.002	19	610.14;
	2	0	0	3	0.002	19	610.14;
	2	0	0	3	0.002	19	610.14;
	2	0	0	3	0.002	19	1261.33;
	2	0	0	3	0.002	19	1261.33;
	2	0	0	3	0	0	0;
	2	0	0	3	0.002	19	236.14;
	2	0	0	3	0.002	19	253.01;
	2	0	0	3	0.002	19	253.01;
	2	0	0	3	0.002	19	253.01;
	2	0	0	3	0.002	19	253.01;
	2	0	0	3	0.002	23.194	614.1;
	2	0	0	3	0.002	23.194	614.1;
	2	0	0	3	0.002	19	236.47;
	2	0	0	3	0.002	19	236.71;
	2	0	0	3	0	6.71	1272.13;
];

%% generator unit type (see GENTYPES)
mpc.gentype = {
	'ST';
	'ST';
	'ST';
	'ST';
	'ST';
	'W2';
	'ST';
	'ST';
	'ST';
	'ST';
	'ST';
	'ST';
	'ST';
	'GT';
	'GT';
	'GT';
	'GT';
	'ST';
	'W2';
	'W2';
	'W2';
	'W2';
	'ST';
	'ST';
	'ST';
	'ST';
	'ST';
	'W2';
	'ST';
	'ST';
	'ST';
	'ST';
	'ST';
	'GT';
	'GT';
	'ST';
	'ST';
	'NB';
};

%% generator fuel type (see GENFUELS)
mpc.genfuel = {
	'coal';
	'coal';
	'coal';
	'coal';
	'coal';
	'wind';
	'coal';
	'coal';
	'coal';
	'coal';
	'coal';
	'coal';
	'coal';
	'ng';
	'ng';
	'ng';
	'ng';
	'coal';
	'wind';
	'wind';
	'wind';
	'wind';
	'coal';
	'coal';
	'coal';
	'coal';
	'coal';
	'wind';
	'coal';
	'coal';
	'coal';
	'coal';
	'coal';
	'ng';
	'ng';
	'coal';
	'coal';
	'nuclear';
};

%% bus names
mpc.bus_name = {
	'CREVE COEUR 0';
	'CREVE COEUR 1';
	'ILLIOPOLIS 0';
	'ILLIOPOLIS 1';
	'PAXTON 2 0';
	'PAXTON 2 1';
	'PEORIA 9 0';
	'PEORIA 9 1';
	'PEORIA 8 0';
	'PEORIA 8 1';
	'LOVINGTON 0';
	'LOVINGTON 1';
	'LOVINGTON 2';
	'DECATUR 3 0';
	'DECATUR 3 1';
	'DECATUR 3 2';
	'MASON CITY 0';
	'MASON CITY 1';
	'MASON CITY 2';
	'MASON CITY 3';
	'MASON CITY 4';
	'BETHANY 0';
	'BETHANY 1';
	'BETHANY 2';
	'RANKIN 0';
	'RANKIN 1';
	'WINDSOR 0';
	'WINDSOR 1';
	'PEKIN 2 0';
	'PEKIN 2 1';
	'HEYWORTH 0';
	'HEYWORTH 1';
	'HEYWORTH 2';
	'DECATUR 2 0';
	'DECATUR 2 1';
	'LINCOLN 0';
	'LINCOLN 1';
	'LINCOLN 2';
	'SHERMAN 0';
	'SHERMAN 1';
	'URBANA 2 0';
	'SPRINGFIELD 8 0';
	'CARLOCK 0';
	'PLEASANT PLAINS 0';
	'LE ROY 0';
	'LE ROY 1';
	'DECATUR 1 0';
	'RANTOUL 2 0';
	'RANTOUL 2 1';
	'RANTOUL 2 2';
	'RANTOUL 2 3';
	'RANTOUL 2 4';
	'RANTOUL 2 5';
	'MACON 0';
	'ELLSWORTH 2 0';
	'ELLSWORTH 2 1';
	'MOUNT PULASKI 0';
	'WAPELLA 0';
	'ROANOKE 0';
	'GREEN VALLEY 0';
	'BLOOMINGTON 3 0';
	'SPRINGFIELD 7 0';
	'BEMENT 0';
	'PAXTON 1 0';
	'PAXTON 1 1';
	'MOUNT ZION 0';
	'MOUNT ZION 1';
	'MOUNT ZION 2';
	'MOUNT ZION 3';
	'MOUNT ZION 4';
	'MOUNT ZION 5';
	'MOUNT ZION 6';
	'MOUNT ZION 7';
	'RANTOUL 1 0';
	'BRIMFIELD 0';
	'BRIMFIELD 1';
	'BRIMFIELD 2';
	'BRIMFIELD 3';
	'BRIMFIELD 4';
	'WELDON 0';
	'GIBSON CITY 2 0';
	'GIBSON CITY 2 1';
	'MINIER 0';
	'HUDSON 0';
	'ATHENS 0';
	'PEORIA HEIGHTS 0';
	'SPRINGFIELD 6 0';
	'SPRINGFIELD 6 1';
	'CLINTON 3 0';
	'CLINTON 3 1';
	'CLINTON 3 2';
	'CLINTON 3 3';
	'TUSCOLA 2 0';
	'TUSCOLA 2 1';
	'KENNEY 0';
	'MANSFIELD 0';
	'MANITO 0';
	'DUNLAP 0';
	'DUNLAP 1';
	'CHAMPAIGN 3 0';
	'PEORIA 7 0';
	'ELLSWORTH 1 0';
	'ELLSWORTH 1 1';
	'ELLSWORTH 1 2';
	'ELLSWORTH 1 3';
	'TOWANDA 0';
	'BLOOMINGTON 2 0';
	'PRINCEVILLE 0';
	'DELAVAN 0';
	'PEORIA 6 0';
	'SAVOY 0';
	'NORMAL 2 0';
	'NORMAL 2 1';
	'NORMAL 2 2';
	'NORMAL 2 3';
	'EAST PEORIA 0';
	'EAST PEORIA 1';
	'HANNA CITY 0';
	'METAMORA 0';
	'GREENVIEW 0';
	'CLINTON 2 0';
	'CLINTON 2 1';
	'BARTONVILLE 0';
	'BARTONVILLE 1';
	'BARTONVILLE 2';
	'BARTONVILLE 3';
	'BARTONVILLE 4';
	'NORMAL 1 0';
	'NORMAL 1 1';
	'LEXINGTON 0';
	'PEORIA 5 0';
	'MORTON 0';
	'PEKIN 1 0';
	'PEKIN 1 1';
	'PEKIN 1 2';
	'PEKIN 1 3';
	'NIANTIC 0';
	'COLFAX 0';
	'EL PASO 0';
	'TREMONT 0';
	'PEORIA 4 0';
	'PEORIA 3 0';
	'CHAMPAIGN 2 0';
	'EUREKA 0';
	'CHATHAM 0';
	'HOPEDALE 2 0';
	'HOPEDALE 2 1';
	'WASHINGTON 0';
	'SPRINGFIELD 5 0';
	'SPRINGFIELD 5 1';
	'SPRINGFIELD 5 2';
	'SPRINGFIELD 5 3';
	'SPRINGFIELD 5 4';
	'SPRINGFIELD 5 5';
	'SPRINGFIELD 5 6';
	'PEORIA 2 0';
	'PEORIA 2 1';
	'MT ZION 0';
	'BUFFALO 0';
	'SPRINGFIELD 4 0';
	'SPRINGFIELD 4 1';
	'CONGERVILLE 0';
	'CHAMPAIGN 1 0';
	'CHAMPAIGN 1 1';
	'CHAMPAIGN 1 2';
	'CHAMPAIGN 1 3';
	'CHAMPAIGN 1 4';
	'CHAMPAIGN 1 5';
	'CHAMPAIGN 1 6';
	'CHAMPAIGN 1 7';
	'FISHER 0';
	'HOMER 0';
	'TUSCOLA 1 0';
	'WHITE HEATH 0';
	'TOLONO 0';
	'SPRINGFIELD 3 0';
	'MACKINAW 0';
	'URBANA 1 0';
	'URBANA 1 1';
	'SAINT JOSEPH 0';
	'SPRINGFIELD 2 0';
	'SPRINGFIELD 2 1';
	'SPRINGFIELD 2 2';
	'MONTICELLO 0';
	'AUBURN 0';
	'HOPEDALE 1 0';
	'CLINTON 1 0';
	'CLINTON 1 1';
	'CLINTON 1 2';
	'MAHOMET 0';
	'VILLA GROVE 0';
	'BLOOMINGTON 1 0';
	'PEORIA 1 0';
	'SPRINGFIELD 1 0';
	'GIBSON CITY 1 0';
	'GIBSON CITY 1 1';
	'GIBSON CITY 1 2';
	'MAPLETON 0';
	'GIFFORD 0';
	'PETERSBURG 0';
};
